*Heading
** Job name: jSpirale Model name: Model-1
** Generated by: Abaqus/CAE 6.14-1
*Preprint, echo=NO, model=NO, history=NO, contact=NO
**
** PARTS
**
*Part, name=spirale
*Node
      1,         -2.5,          7.5,          -5.
      2,         -2.5,          7.5,           0.
      3,         -2.5,          2.5,           0.
      4,         -2.5,         87.5,          -5.
      5,         -2.5,         87.5,           0.
      6,         82.5,          2.5,           0.
      7,         82.5,          2.5,          -5.
      8,          2.5,        -77.5,           0.
      9,          2.5,        -77.5,          -5.
     10,        -72.5,         -2.5,           0.
     11,        -72.5,         -2.5,          -5.
     12,         -2.5,         67.5,           0.
     13,         -2.5,         67.5,          -5.
     14,         62.5,          2.5,           0.
     15,         62.5,          2.5,          -5.
     16,          2.5,        -57.5,           0.
     17,          2.5,        -57.5,          -5.
     18,        -52.5,         -2.5,           0.
     19,        -52.5,         -2.5,          -5.
     20,         -2.5,         47.5,           0.
** ... 1906 like lines cut
*Element, type=C3D8R
  1,    3,    2,    1,   96,  410,  406,  407, 1147
  2,  410,  406,  407, 1147,  411,  405,  408, 1148
  3,  411,  405,  408, 1148,   36,   34,   35,  409
  4,   36,   34,   35,  409,  413,  402,  403, 1149
  5,  413,  402,  403, 1149,  414,  401,  404, 1150
  6,  414,  401,  404, 1150,   37,   32,   33,  412
  7,   37,   32,   33,  412,  416,  396,  397, 1151
  8,  416,  396,  397, 1151,  417,  395,  398, 1152
  9,  417,  395,  398, 1152,  418,  394,  399, 1153
 10,  418,  394,  399, 1153,  419,  393,  400, 1154
 11,  419,  393,  400, 1154,   38,   30,   31,  415
 12,   38,   30,   31,  415,  421,  387,  388, 1155
 13,  421,  387,  388, 1155,  422,  386,  389, 1156
 14,  422,  386,  389, 1156,  423,  385,  390, 1157
 15,  423,  385,  390, 1157,  424,  384,  391, 1158
 16,  424,  384,  391, 1158,  425,  383,  392, 1159
 17,  425,  383,  392, 1159,   39,   28,   29,  420
 18,   39,   28,   29,  420,  427,  376,  377, 1160
 19,  427,  376,  377, 1160,  428,  375,  378, 1161
 20,  428,  375,  378, 1161,  429,  374,  379, 1162
** ... 832 like lines cut
*Nset, nset=Set-1, generate
    1,  1926,     1
*Elset, elset=Set-1, generate
   1,  852,    1
** Section: Section-1
*Solid Section, elset=Set-1, material=Material-1
,
*End Part
**  
**
** ASSEMBLY
**
*Assembly, name=Assembly
**  
*Instance, name=spirale-1, part=spirale
*End Instance
**  
*Nset, nset=Set-1, instance=spirale-1
 2,
*Nset, nset=Set-2, instance=spirale-1
   54,   55,   57,   58,   95,  699,  700, 1107, 1146
*Elset, elset=Set-2, instance=spirale-1
 213, 214, 639, 852
*End Assembly
** 
** MATERIALS
** 
*Material, name=Material-1
*Density
 5e-09,
*Elastic
100.,0.
** ----------------------------------------------------------------
** 
** STEP: Step-Dead
** 
*Step, name=Step-Dead, nlgeom=YES
*Static
0.1, 1., 1e-05, 0.1
** 
** BOUNDARY CONDITIONS
** 
** Name: BC-1 Type: Displacement/Rotation
*Boundary
Set-1, 1, 1
Set-1, 2, 2
Set-1, 3, 3
** Name: disp Type: Displacement/Rotation
*Boundary
Set-2, 1, 1
Set-2, 2, 2
Set-2, 3, 3, 300.
** 
** LOADS
** 
** Name: dead   Type: Gravity
*Dload
, GRAV, 9810., 0., 0., -1.
** 
** OUTPUT REQUESTS
** 
*Restart, write, frequency=0
** 
** FIELD OUTPUT: F-Output-1
** 
*Output, field, variable=PRESELECT
** 
** HISTORY OUTPUT: H-Output-1
** 
*Output, history, variable=PRESELECT
*End Step
